/*--------------------------------*- C++ -*----------------------------------*\
| =========                 |                                                 |
| \\      /  F ield         | OpenFOAM: The Open Source CFD Toolbox           |
|  \\    /   O peration     | Version:  2.2.0                                 |
|   \\  /    A nd           | Web:      www.OpenFOAM.org                      |
|    \\/     M anipulation  |                                                 |
\*---------------------------------------------------------------------------*/
FoamFile
{
    version     2.0;
    format      ascii;
    class       dictionary;
    object      blockMeshDict;
}

// * * * * * * * * * * * * * * * * * * * * * * * * * * * * * * * * * * * * * //









convertToMeters 1;















vertices
(
    (-5 -2.5 -2.5)  
    (5 -2.5 -2.5)
    (5 2.5 -2.5)
    (-5 2.5 -2.5)
    (-5 -2.5 2.5)
    (5 -2.5 2.5)
    (5 2.5 2.5)
    (-5 2.5 2.5)
);

blocks
(
    hex (0 1 2 3 4 5 6 7) (50  25  25 ) simpleGrading (1 1 1)
);

edges
(
);

boundary
(
);

// ************************************************************************* //
