/*--------------------------------*- C++ -*----------------------------------*\
| =========                 |                                                 |
| \\      /  F ield         | OpenFOAM: The Open Source CFD Toolbox           |
|  \\    /   O peration     | Version:  2.2.0                                 |
|   \\  /    A nd           | Web:      www.OpenFOAM.org                      |
|    \\/     M anipulation  |                                                 |
\*---------------------------------------------------------------------------*/
FoamFile
{
    version     2.0;
    format      ascii;
    class       dictionary;
    object      decomposeParDict;
}

// * * * * * * * * * * * * * * * * * * * * * * * * * * * * * * * * * * * * * //

numberOfSubdomains 16;

method          simple;
//hierarchical;
// method          ptscotch;

scotch
{
	n 	(1 8 1);
}

simpleCoeffs
{
    n               (16 1 1);
    delta           0.001;
}


manualCoeffs
{
    dataFile        "cellDecomposition";
}


// ************************************************************************* //
