/*--------------------------------*- C++ -*----------------------------------*\
| =========                 |                                                 |
| \\      /  F ield         | OpenFOAM: The Open Source CFD Toolbox           |
|  \\    /   O peration     | Version:  2.2.0                                 |
|   \\  /    A nd           | Web:      www.OpenFOAM.org                      |
|    \\/     M anipulation  |                                                 |
\*---------------------------------------------------------------------------*/
FoamFile
{
    version     2.0;
    format      ascii;
    class       dictionary;
    object      fvSchemes;
}
// * * * * * * * * * * * * * * * * * * * * * * * * * * * * * * * * * * * * * //

ddtSchemes
{
    default     steadyState;
}

gradSchemes
{
        grad(p)         leastSquares;
        default         Gauss linear;
}

divSchemes
{
    div(phi,U)       bounded Gauss linearUpwindV grad(U);
    div((nuEff*dev(T(grad(U)))))    Gauss linear;
}

laplacianSchemes
{
    laplacian(nuEff,U)                  Gauss linear limited 0.333;
    laplacian((1|A(U)),p)               Gauss linear limited 0.333;
}

interpolationSchemes
{
    default         linear;
    interpolate(U)  linear;
}

snGradSchemes
{
    default         limited 0.333;
}

fluxRequired
{
    default         no;
    p;
}

