/*--------------------------------*- C++ -*----------------------------------*\
| =========                 |                                                 |
| \\      /  F ield         | OpenFOAM: The Open Source CFD Toolbox           |
|  \\    /   O peration     | Version:  2.2.0                                 |
|   \\  /    A nd           | Web:      www.OpenFOAM.org                      |
|    \\/     M anipulation  |                                                 |
\*---------------------------------------------------------------------------*/
FoamFile
{
    version     2.0;
    format      ascii;
    class       dictionary;
    object      fvSolution;
}
// * * * * * * * * * * * * * * * * * * * * * * * * * * * * * * * * * * * * * //

solvers
{
    p
    {
        solver              GAMG;
        smoother            GaussSeidel;
        cacheAgglomeration  true;
        nCellsInCoarsestLevel   1000;
        agglomerator        faceAreaPair;
        mergeLevels         1;
//        minIter             0;
//        maxIter             100;
        tolerance           1e-06;
        relTol              0.001;
        minIter          10;
        maxIter          25;
    };

    U
    {
        solver           PBiCG;
        preconditioner   DILU;
//        minIter          0;
//        maxIter          1000;
        tolerance        1e-08;
        relTol           0;
        minIter          3;
        maxIter          8;
    };
}

SIMPLE
{
    nNonOrthogonalCorrectors 3;
}

relaxationFactors
{
    p               0.2;
    U               0.3;
}

// ************************************************************************* //
